<<<<<<< HEAD
$-------------------------------------------------------------------------------
$       M C S   H E A D E R   F O R   M S C . N A S T R A N   S O L 2 0 0
$
$                         Copyright (c) 2006 by Yves Govers               _ /|_
$                                       German Aerospace Center (DLR)    /_/_/_/
$                                       Institute of Aeroelasticity        |/
$-------------------------------------------------------------------------------
$                                                        FILE MANAGEMENT SECTION
$-------------------------------------------------------------------------------
$ Patran Output File:
ASSIGN OUTPUT2 = 'mcs.op2',  STATUS=UNKNOWN, UNIT=12
NASTRAN OP2NEW = 0
$
$-------------------------------------------------------------------------------
$                                                      EXECUTIVE CONTROL SECTION
$-------------------------------------------------------------------------------
TIME 100000
SOL 200          $ SENSITIVITY & OPTIMIZATION ANALYSIS
CEND
$
$-------------------------------------------------------------------------------
$                                                           CASE CONTROL SECTION
$-------------------------------------------------------------------------------
TITLE = MCS
SUBTITLE= MCSMat ANALYSIS DECK
$
DESSUB = 1
DSAPRT(NOPRINT,EXPORT,END=SENS) = ALL
ANALYSIS =  MODES
VECTOR(PLOT,SORT1,REAL) = ALL
METHOD = 1
SPC = 1
$
$-------------------------------------------------------------------------------
$                                                              BULK DATA SECTION
$-------------------------------------------------------------------------------
BEGIN BULK
$
$----- SET PARAMETERS:
$
PARAM,POST,-1          $ SETTINGS FOR OUTPUT2 DATA
PARAM,MAXRATIO,1E+6    $ SET UPPER LIMIT
PARAM,K6ROT,100.       $ STIFFNESS ADDED TO NORMAL ROTATION TO QUAD4/TRIA3
PARAM,COUPMASS,1       $ GENERATE COUPLED MASS MATRIX
PARAM,AUTOSPC,YES      $ CONSTRAIN SINGULARITIES
PARAM,GRDPNT,0         $ CALCULATE RIGID BODY MASS MATRIX
PARAM,ITERATE,NO       $ PERFORM NO ITERATION
$
$----- SET ADDITIONAL MCSMat PARAMETERS:
$
$ ----- DIFFERENCE FLAG TOLERANCE:
PARAM,DPEPS,1E-20
$
$-----1||-----2||-----3||-----4||-----5||-----6||-----7||-----8||-----9||----10|
$###############################################################################
$                   S T A R T   O F   M A K E M C S   C A R D S
$###############################################################################
$-------------------------------------------------------------------------------
$ Additional DCONSTR, DRESP1 and DSCREEN cards
$-------------------------------------------------------------------------------
DCONSTR        1       2
DCONSTR        1       3
DCONSTR        1       4
DCONSTR        1       5
DCONSTR        1       6
DCONSTR        1       7
DCONSTR        1       8
DCONSTR        1       9
DCONSTR        1      10
DCONSTR        1      11
DCONSTR        1      12
DCONSTR        1      13
DCONSTR        1      14
DCONSTR        1      15
DCONSTR        1      16
DCONSTR        1      17
DCONSTR        1      18
DCONSTR        1      19
DCONSTR        1      20
DCONSTR        1      21
DCONSTR        1      22
DCONSTR        1      23
DCONSTR        1      24
DCONSTR        1      25
DCONSTR        1      26
DCONSTR        1      27
DCONSTR        1      28
DCONSTR        1      29
DCONSTR        1      30
DCONSTR        1      31
DCONSTR        1      32
DCONSTR        1      33
DCONSTR        1      34
DCONSTR        1      35
$
DRESP1         2 LAM0002    EIGN                       2
DRESP1         3 LAM0003    EIGN                       3
DRESP1         4 LAM0004    EIGN                       4
DRESP1         5 LAM0005    EIGN                       5
DRESP1         6 LAM0006    EIGN                       6
DRESP1         7 LAM0007    EIGN                       7
DRESP1         8 LAM0008    EIGN                       8
DRESP1         9 LAM0009    EIGN                       9
DRESP1        10 LAM0010    EIGN                      10
DRESP1        11 LAM0011    EIGN                      11
DRESP1        12 LAM0012    EIGN                      12
DRESP1        13 LAM0013    EIGN                      13
DRESP1        14 LAM0014    EIGN                      14
DRESP1        15 LAM0015    EIGN                      15
DRESP1        16 LAM0016    EIGN                      16
DRESP1        17 LAM0017    EIGN                      17
DRESP1        18 LAM0018    EIGN                      18
DRESP1        19 LAM0019    EIGN                      19
DRESP1        20 LAM0020    EIGN                      20
DRESP1        21 LAM0021    EIGN                      21
DRESP1        22 LAM0022    EIGN                      22
DRESP1        23 LAM0023    EIGN                      23
DRESP1        24 LAM0024    EIGN                      24
DRESP1        25 LAM0025    EIGN                      25
DRESP1        26 LAM0026    EIGN                      26
DRESP1        27 LAM0027    EIGN                      27
DRESP1        28 LAM0028    EIGN                      28
DRESP1        29 LAM0029    EIGN                      29
DRESP1        30 LAM0030    EIGN                      30
DRESP1        31 LAM0031    EIGN                      31
DRESP1        32 LAM0032    EIGN                      32
DRESP1        33 LAM0033    EIGN                      33
DRESP1        34 LAM0034    EIGN                      34
DRESP1        35 LAM0035    EIGN                      35
$
DSCREEN     EIGN  -1.+20
$-------------------------------------------------------------------------------
EIGRL          1                      35                            MASS
$###############################################################################
$-------------------------------------------------------------------------------
$ Additional DESVAR cards
$-------------------------------------------------------------------------------
$--- 1) Parameter: Parameter # 1 -----------------------------------------------
$-----1||-----2||-----3||-----4||-----5||-----6||-----7||-----8||-----9||----10|
DESVAR         1 PARA001  1.8408
$--- 2) Parameter: Parameter # 2 -----------------------------------------------
DESVAR         2 PARA002  0.5863
$--- 3) Parameter: Parameter # 3 -----------------------------------------------
DESVAR         3 PARA003  1.2315
$--- 4) Parameter: Parameter # 4 -----------------------------------------------
DESVAR         4 PARA004  2.4522
$--- 5) Parameter: Parameter # 5 -----------------------------------------------
DESVAR         5 PARA005  2.4462
$--- 6) Parameter: Parameter # 6 -----------------------------------------------
DESVAR         6 PARA006  0.2647
$--- 7) Parameter: Parameter # 7 -----------------------------------------------
DESVAR         7 PARA007  0.5653
$--- 8) Parameter: Parameter # 8 -----------------------------------------------
DESVAR         8 PARA008  0.8412
$--- 9) Parameter: Parameter # 9 -----------------------------------------------
DESVAR         9 PARA009  1.0468
$--- 10) Parameter: Parameter # 10 ---------------------------------------------
DESVAR        10 PARA010  0.9373
$--- 11) Parameter: Parameter # 11 ---------------------------------------------
DESVAR        11 PARA011  2.2579
$--- 12) Parameter: Parameter # 12 ---------------------------------------------
DESVAR        12 PARA012  0.4899
$--- 13) Parameter: Parameter # 13 ---------------------------------------------
DESVAR        13 PARA013  0.5032
$--- 14) Parameter: Parameter # 14 ---------------------------------------------
DESVAR        14 PARA014  2.0005
$--- 15) Parameter: Parameter # 15 ---------------------------------------------
DESVAR        15 PARA015  0.4712
$--- 16) Parameter: Parameter # 16 ---------------------------------------------
DESVAR        16 PARA016  0.3472
$--- 17) Parameter: Parameter # 17 ---------------------------------------------
DESVAR        17 PARA017  0.1413
$--- 18) Parameter: Parameter # 18 ---------------------------------------------
DESVAR        18 PARA018  0.5229
$###############################################################################
$-------------------------------------------------------------------------------
$ Additional DVxREL1 cards
$-------------------------------------------------------------------------------
$--- 1) Parameter: Parameter # 1 -----------------------------------------------
DVMREL1        1    MAT1    2001       E
               1 1.800+3
$--- 2) Parameter: Parameter # 2 -----------------------------------------------
DVMREL1        2    MAT1    2002       E
               2 7.500+3
$--- 3) Parameter: Parameter # 3 -----------------------------------------------
DVPREL1        3   PELAS    1003      K1
               3 1.300+2
$--- 4) Parameter: Parameter # 4 -----------------------------------------------
DVPREL1        4   PELAS    1004      K1
               4 7.000+1
$--- 5) Parameter: Parameter # 5 -----------------------------------------------
DVPREL1        5   PELAS    1005      K1
               5 7.000+1
$--- 6) Parameter: Parameter # 6 -----------------------------------------------
DVPREL1        6   PELAS    1009      K1
               6 1.000+7
$--- 7) Parameter: Parameter # 7 -----------------------------------------------
DVPREL1        7   PELAS    1010      K1
               7 1.000+9
$--- 8) Parameter: Parameter # 8 -----------------------------------------------
DVPREL1        8   PMASS    1015      M1
               8 2.000-1
$--- 9) Parameter: Parameter # 9 -----------------------------------------------
DVPREL1        9   PMASS    1013      M1
               9 1.860-1
$--- 10) Parameter: Parameter # 10 ---------------------------------------------
DVPREL1       10   PMASS    1014      M1
              10 1.860-1
$--- 11) Parameter: Parameter # 11 ---------------------------------------------
DVPREL1       11   PMASS    1016      M1
              11 1.500-2
$--- 12) Parameter: Parameter # 12 ---------------------------------------------
DVPREL1       12   PMASS    1017      M1
              12 1.500-2
$--- 13) Parameter: Parameter # 13 ---------------------------------------------
DVPREL1       13   PMASS    1018      M1
              13 1.500-2
$--- 14) Parameter: Parameter # 14 ---------------------------------------------
DVPREL1       14   PELAS    1006      K1
              14 2.000+7
$--- 15) Parameter: Parameter # 15 ---------------------------------------------
DVPREL1       15   PELAS    1007      K1
              15 2.000+7
$--- 16) Parameter: Parameter # 16 ---------------------------------------------
DVPREL1       16   PELAS    1008      K1
              16 7.000+6
$--- 17) Parameter: Parameter # 17 ---------------------------------------------
DVPREL1       17   PELAS    1011      K1
              17 5.000+7
$--- 18) Parameter: Parameter # 18 ---------------------------------------------
DVPREL1       18   PELAS    1012      K1
              18 1.000+7
$###############################################################################
$-------------------------------------------------------------------------------
$ Additional cards for group 1 (ELASTIC_SUPPORT_FRONT)
$-------------------------------------------------------------------------------
$--- COPY OF CARD PROD.16 ------------------------------------------------------
PROD     1001    2001   1.                                                      
$--- COPY OF CARD MAT1.2 -------------------------------------------------------
MAT1     2001   1800.                                                           
$-------------------------------------------------------------------------------
$ Additional cards for group 2 (ELASTIC_SUPPORT_BACK)
$-------------------------------------------------------------------------------
$--- COPY OF CARD PROD.17 ------------------------------------------------------
PROD     1002    2002   1.                                                      
$--- COPY OF CARD MAT1.3 -------------------------------------------------------
MAT1     2002   7500.                                                           
$-------------------------------------------------------------------------------
$ Additional cards for group 3 (ELASTIC_SUPPORT_VTP_Y (CABLE STIFFNESS))
$-------------------------------------------------------------------------------
$--- COPY OF CARD PELAS.160 ----------------------------------------------------
PELAS    1003   130.                                                            
$-------------------------------------------------------------------------------
$ Additional cards for group 4 (ELASTIC_SUPPORT_WING/FUSE_Y (CABLE STIFFNESS UP))
$-------------------------------------------------------------------------------
$--- COPY OF CARD PELAS.170 ----------------------------------------------------
PELAS    1004   70.                                                             
$-------------------------------------------------------------------------------
$ Additional cards for group 5 (ELASTIC_SUPPORT_WING/FUSE_Y (CABLE STIFFNESS DOWN))
$-------------------------------------------------------------------------------
$--- COPY OF CARD PELAS.170 ----------------------------------------------------
PELAS    1005   70.                                                             
$-------------------------------------------------------------------------------
$ Additional cards for group 6 (WING_FUSE (JOINT STIFFNESS X-DIR))
$-------------------------------------------------------------------------------
$--- COPY OF CARD PELAS.4 ------------------------------------------------------
PELAS    1006   2.+7                                                            
$-------------------------------------------------------------------------------
$ Additional cards for group 7 (WING_FUSE (JOINT STIFFNESS Y-DIR))
$-------------------------------------------------------------------------------
$--- COPY OF CARD PELAS.5 ------------------------------------------------------
PELAS    1007   2.+7                                                            
$-------------------------------------------------------------------------------
$ Additional cards for group 8 (WING_FUSE (JOINT STIFFNESS Z-DIR))
$-------------------------------------------------------------------------------
$--- COPY OF CARD PELAS.6 ------------------------------------------------------
PELAS    1008   7.+6                                                            
$-------------------------------------------------------------------------------
$ Additional cards for group 10 (HTP_VTP (JOINT STIFFNESS X,Y-DIR))
$-------------------------------------------------------------------------------
$--- COPY OF CARD PELAS.1 ------------------------------------------------------
PELAS    1009   1.+7                                                            
$-------------------------------------------------------------------------------
$ Additional cards for group 11 (HTP_VTP (JOINT STIFFNESS Z-DIR))
$-------------------------------------------------------------------------------
$--- COPY OF CARD PELAS.3 ------------------------------------------------------
PELAS    1010   1.+9                                                            
$-------------------------------------------------------------------------------
$ Additional cards for group 12 (VTP_FUSE (JOINT STIFFNESS X-DIR))
$-------------------------------------------------------------------------------
$--- COPY OF CARD PELAS.10 -----------------------------------------------------
PELAS    1011   5.+7                                                            
$-------------------------------------------------------------------------------
$ Additional cards for group 13 (VTP_FUSE (JOINT STIFFNESS Y-DIR))
$-------------------------------------------------------------------------------
$--- COPY OF CARD PELAS.11 -----------------------------------------------------
PELAS    1012   1.+7                                                            
$-------------------------------------------------------------------------------
$ Additional cards for group 15 (MASS FOR WINGTIP RIGHT)
$-------------------------------------------------------------------------------
$--- COPY OF CARD PMASS.104 ----------------------------------------------------
PMASS    1013    .186                                                           
$-------------------------------------------------------------------------------
$ Additional cards for group 16 (MASS FOR WINGTIP LEFT)
$-------------------------------------------------------------------------------
$--- COPY OF CARD PMASS.104 ----------------------------------------------------
PMASS    1014    .186                                                           
$-------------------------------------------------------------------------------
$ Additional cards for group 17 (MASS FOR VTP/HTP CONNECTION)
$-------------------------------------------------------------------------------
$--- COPY OF CARD PMASS.103 ----------------------------------------------------
PMASS    1015   .20                                                             
$-------------------------------------------------------------------------------
$ Additional cards for group 18 (MASS FOR WINGTIP SENSOR/CABLE)
$-------------------------------------------------------------------------------
$--- COPY OF CARD PMASS.105 ----------------------------------------------------
PMASS    1016    .015                                                           
$-------------------------------------------------------------------------------
$ Additional cards for group 19 (MASS FOR OUTER WING SENSOR/CABLE)
$-------------------------------------------------------------------------------
$--- COPY OF CARD PMASS.106 ----------------------------------------------------
PMASS    1017    .015                                                           
$-------------------------------------------------------------------------------
$ Additional cards for group 20 (MASS FOR INNER WING SENSOR/CABLE)
$-------------------------------------------------------------------------------
$--- COPY OF CARD PMASS.107 ----------------------------------------------------
PMASS    1018    .015                                                           
$###############################################################################
$                      E N D   O F   M A K E M C S   C A R D S
$###############################################################################
$*******************************************************************************
$****** A D D I T I O N A L    E L E M E N T S   F O R   U P D A T I N G  ******
$*******************************************************************************

$ ### springs for elastic support ###################################### start -
$
$ ******************************************************************************
$ A/C - HEAVE/PITCH
$ ******************************************************************************
$ Elements and Element Properties for region : elastic_support_front
PROD     16      2      1.
$ Pset: "elastic_support_front" will be imported as: "prod.16"
CROD     2304    1001    3593    3446
CROD     2305    1001    3593    3442
$ Elements and Element Properties for region : elastic_support_rear
PROD     17      3      1.
$ Pset: "fronbsus" will be imported as: "prod.17"
CROD     2303    1002    3594    1113
$
$ ******************************************************************************
$ A/C - YAW/ROLL
$ ******************************************************************************
$ Pset: "elastic_support_vtp_y" will be imported as: "pelas.160"
PELAS    160    130.
$ Elements and Element Properties for region : elastic_support_vtp_y (cable stiffness)
CELAS1   7000    1003    3089    2
$ Pset: "elastic_support_wing/fuse_y" will be imported as: "pelas.17"
PELAS    170    70.
$ Elements and Element Properties for region : elastic_support_wing/fuse_y (cable stiffness)
CELAS1   5001    1004    2169    2
CELAS1   5002    1005    82      2
$
$ ### springs for elastic support ######################################## end -


$ ### springs for joints ############################################### start -
$ ******************************************************************************
$ Joint VTP/HTP
$ ******************************************************************************
$ --- x - direction ------------------------------------------------------------
$ Elements and Element Properties for region : sphtvtxy
PELAS    1      1.+7
$ Pset: "sphtvtx" will be imported as: "pelas.1"
CELAS1   1375    1009    2895    1       2929    1
CELAS1   1378    1009    2900    1       3043    1
CELAS1   1381    1009    2893    1       2947    1
CELAS1   1384    1009    2898    1       3045    1
CELAS1   2033    1009    2897    1       3046    1
CELAS1   2036    1009    2899    1       3044    1
CELAS1   2039    1009    2901    1       3042    1
CELAS1   2042    1009    2892    1       2956    1
CELAS1   2045    1009    2894    1       2938    1
CELAS1   2048    1009    2896    1       2920    1
CELAS1   2061    1009    3105    1       3596    1
CELAS1   2064    1009    3120    1       3597    1
CELAS1   2067    1009    3135    1       3598    1
CELAS1   2070    1009    3150    1       3599    1
CELAS1   2073    1009    3165    1       3600    1
CELAS1   2076    1009    3307    1       3601    1
CELAS1   2079    1009    3308    1       3602    1
CELAS1   2082    1009    3309    1       3603    1
CELAS1   2085    1009    3310    1       3604    1
CELAS1   2088    1009    3311    1       3605    1
$ --- y - direction ------------------------------------------------------------
CELAS1   1376    1009    2895    2       2929    2
CELAS1   1379    1009    2900    2       3043    2
CELAS1   1382    1009    2893    2       2947    2
CELAS1   1385    1009    2898    2       3045    2
CELAS1   2034    1009    2897    2       3046    2
CELAS1   2037    1009    2899    2       3044    2
CELAS1   2040    1009    2901    2       3042    2
CELAS1   2043    1009    2892    2       2956    2
CELAS1   2046    1009    2894    2       2938    2
CELAS1   2049    1009    2896    2       2920    2
CELAS1   2062    1009    3105    2       3596    2
CELAS1   2065    1009    3120    2       3597    2
CELAS1   2068    1009    3135    2       3598    2
CELAS1   2071    1009    3150    2       3599    2
CELAS1   2074    1009    3165    2       3600    2
CELAS1   2077    1009    3307    2       3601    2
CELAS1   2080    1009    3308    2       3602    2
CELAS1   2083    1009    3309    2       3603    2
CELAS1   2086    1009    3310    2       3604    2
CELAS1   2089    1009    3311    2       3605    2
$ --- z - direction ------------------------------------------------------------
$ Elements and Element Properties for region : sphtvtz
PELAS    3      1.+9
$ Pset: "sphtvtz" will be imported as: "pelas.3"
CELAS1   1377    1010    2895    3       2929    3
CELAS1   1380    1010    2900    3       3043    3
CELAS1   1383    1010    2893    3       2947    3
CELAS1   1386    1010    2898    3       3045    3
CELAS1   2035    1010    2897    3       3046    3
CELAS1   2038    1010    2899    3       3044    3
CELAS1   2041    1010    2901    3       3042    3
CELAS1   2044    1010    2892    3       2956    3
CELAS1   2047    1010    2894    3       2938    3
CELAS1   2050    1010    2896    3       2920    3
CELAS1   2063    1010    3105    3       3596    3
CELAS1   2066    1010    3120    3       3597    3
CELAS1   2069    1010    3135    3       3598    3
CELAS1   2072    1010    3150    3       3599    3
CELAS1   2075    1010    3165    3       3600    3
CELAS1   2078    1010    3307    3       3601    3
CELAS1   2081    1010    3308    3       3602    3
CELAS1   2084    1010    3309    3       3603    3
CELAS1   2087    1010    3310    3       3604    3
CELAS1   2090    1010    3311    3       3605    3
$ ******************************************************************************
$ Joint Wing/FUSE (in detail wing wingbox)
$ ******************************************************************************
$ --- x - direction ------------------------------------------------------------
$ Elements and Element Properties for region : spwibrx
PELAS    4      2.+7
$ Pset: "spwibrx" will be imported as: "pelas.4"
CELAS1   1796    1006    1772    1       3462    1
CELAS1   1799    1006    1773    1       3461    1
CELAS1   1802    1006    1774    1       3460    1
CELAS1   1805    1006    1775    1       3459    1
CELAS1   1808    1006    1776    1       3458    1
CELAS1   1811    1006    1767    1       3477    1
CELAS1   1814    1006    1768    1       3476    1
CELAS1   1817    1006    1769    1       3475    1
CELAS1   1820    1006    1770    1       3474    1
CELAS1   1823    1006    1771    1       3473    1
CELAS1   1826    1006    1762    1       3492    1
CELAS1   1829    1006    1763    1       3491    1
CELAS1   1832    1006    1764    1       3490    1
CELAS1   1835    1006    1765    1       3489    1
CELAS1   1838    1006    1766    1       3488    1
CELAS1   1841    1006    1757    1       3507    1
CELAS1   1844    1006    1758    1       3506    1
CELAS1   1847    1006    1759    1       3505    1
CELAS1   1850    1006    1760    1       3504    1
CELAS1   1853    1006    1761    1       3503    1
CELAS1   1856    1006    1752    1       3522    1
CELAS1   1859    1006    1753    1       3521    1
CELAS1   1862    1006    1754    1       3520    1
CELAS1   1865    1006    1755    1       3519    1
CELAS1   1868    1006    1756    1       3518    1
$ --- y - direction ------------------------------------------------------------
$ Elements and Element Properties for region : spwibry
PELAS    5      2.+7
$ Pset: "spwibry" will be imported as: "pelas.5"
CELAS1   1797    1007    1772    2       3462    2
CELAS1   1800    1007    1773    2       3461    2
CELAS1   1803    1007    1774    2       3460    2
CELAS1   1806    1007    1775    2       3459    2
CELAS1   1809    1007    1776    2       3458    2
CELAS1   1812    1007    1767    2       3477    2
CELAS1   1815    1007    1768    2       3476    2
CELAS1   1818    1007    1769    2       3475    2
CELAS1   1821    1007    1770    2       3474    2
CELAS1   1824    1007    1771    2       3473    2
CELAS1   1827    1007    1762    2       3492    2
CELAS1   1830    1007    1763    2       3491    2
CELAS1   1833    1007    1764    2       3490    2
CELAS1   1836    1007    1765    2       3489    2
CELAS1   1839    1007    1766    2       3488    2
CELAS1   1842    1007    1757    2       3507    2
CELAS1   1845    1007    1758    2       3506    2
CELAS1   1848    1007    1759    2       3505    2
CELAS1   1851    1007    1760    2       3504    2
CELAS1   1854    1007    1761    2       3503    2
CELAS1   1857    1007    1752    2       3522    2
CELAS1   1860    1007    1753    2       3521    2
CELAS1   1863    1007    1754    2       3520    2
CELAS1   1866    1007    1755    2       3519    2
CELAS1   1869    1007    1756    2       3518    2
$ --- z - direction ------------------------------------------------------------
$ Elements and Element Properties for region : spwibrz
PELAS    6      7.+6
$ Pset: "spwibrz" will be imported as: "pelas.6"
CELAS1   1798    1008    1772    3       3462    3
CELAS1   1801    1008    1773    3       3461    3
CELAS1   1804    1008    1774    3       3460    3
CELAS1   1807    1008    1775    3       3459    3
CELAS1   1810    1008    1776    3       3458    3
CELAS1   1813    1008    1767    3       3477    3
CELAS1   1816    1008    1768    3       3476    3
CELAS1   1819    1008    1769    3       3475    3
CELAS1   1822    1008    1770    3       3474    3
CELAS1   1825    1008    1771    3       3473    3
CELAS1   1828    1008    1762    3       3492    3
CELAS1   1831    1008    1763    3       3491    3
CELAS1   1834    1008    1764    3       3490    3
CELAS1   1837    1008    1765    3       3489    3
CELAS1   1840    1008    1766    3       3488    3
CELAS1   1843    1008    1757    3       3507    3
CELAS1   1846    1008    1758    3       3506    3
CELAS1   1849    1008    1759    3       3505    3
CELAS1   1852    1008    1760    3       3504    3
CELAS1   1855    1008    1761    3       3503    3
CELAS1   1858    1008    1752    3       3522    3
CELAS1   1861    1008    1753    3       3521    3
CELAS1   1864    1008    1754    3       3520    3
CELAS1   1867    1008    1755    3       3519    3
CELAS1   1870    1008    1756    3       3518    3
$ ******************************************************************************
$ Joint Wing/FUSE (in detail wingbox fuse) considered as rigid
$ ******************************************************************************
$ --- x - direction ------------------------------------------------------------
$ Elements and Element Properties for region : spfubrx
PELAS    7      1.+13
$ Pset: "spfubrx" will be imported as: "pelas.7"
CELAS1   1693    7       3544    1       3435    1
CELAS1   1696    7       3513    1       1047    1
CELAS1   1699    7       3514    1       1046    1
CELAS1   1702    7       3515    1       1045    1
CELAS1   1705    7       3516    1       1044    1
CELAS1   1708    7       3517    1       1043    1
CELAS1   1711    7       3549    1       3429    1
CELAS1   1714    7       3545    1       3436    1
CELAS1   1717    7       3498    1       1104    1
CELAS1   1720    7       3499    1       1103    1
CELAS1   1723    7       3500    1       1102    1
CELAS1   1726    7       3501    1       1101    1
CELAS1   1729    7       3502    1       1100    1
CELAS1   1732    7       3550    1       3430    1
CELAS1   1735    7       3546    1       3437    1
CELAS1   1738    7       3483    1       1160    1
CELAS1   1741    7       3484    1       1159    1
CELAS1   1744    7       3485    1       1158    1
CELAS1   1747    7       3486    1       1157    1
CELAS1   1750    7       3487    1       1156    1
CELAS1   1753    7       3551    1       3431    1
$ --- y - direction ------------------------------------------------------------
$ Elements and Element Properties for region : spfubry
PELAS    8      1.+11
$ Pset: "spfubry" will be imported as: "pelas.8"
CELAS1   1694    8       3544    2       3435    2
CELAS1   1697    8       3513    2       1047    2
CELAS1   1700    8       3514    2       1046    2
CELAS1   1703    8       3515    2       1045    2
CELAS1   1706    8       3516    2       1044    2
CELAS1   1709    8       3517    2       1043    2
CELAS1   1712    8       3549    2       3429    2
CELAS1   1715    8       3545    2       3436    2
CELAS1   1718    8       3498    2       1104    2
CELAS1   1721    8       3499    2       1103    2
CELAS1   1724    8       3500    2       1102    2
CELAS1   1727    8       3501    2       1101    2
CELAS1   1730    8       3502    2       1100    2
CELAS1   1733    8       3550    2       3430    2
CELAS1   1736    8       3546    2       3437    2
CELAS1   1739    8       3483    2       1160    2
CELAS1   1742    8       3484    2       1159    2
CELAS1   1745    8       3485    2       1158    2
CELAS1   1748    8       3486    2       1157    2
CELAS1   1751    8       3487    2       1156    2
CELAS1   1754    8       3551    2       3431    2
$ --- z - direction ------------------------------------------------------------
$ Elements and Element Properties for region : spfubrz
PELAS    9      1.+11
$ Pset: "spfubrz" will be imported as: "pelas.9"
CELAS1   1695    9       3544    3       3435    3
CELAS1   1698    9       3513    3       1047    3
CELAS1   1701    9       3514    3       1046    3
CELAS1   1704    9       3515    3       1045    3
CELAS1   1707    9       3516    3       1044    3
CELAS1   1710    9       3517    3       1043    3
CELAS1   1713    9       3549    3       3429    3
CELAS1   1716    9       3545    3       3436    3
CELAS1   1719    9       3498    3       1104    3
CELAS1   1722    9       3499    3       1103    3
CELAS1   1725    9       3500    3       1102    3
CELAS1   1728    9       3501    3       1101    3
CELAS1   1731    9       3502    3       1100    3
CELAS1   1734    9       3550    3       3430    3
CELAS1   1737    9       3546    3       3437    3
CELAS1   1740    9       3483    3       1160    3
CELAS1   1743    9       3484    3       1159    3
CELAS1   1746    9       3485    3       1158    3
CELAS1   1749    9       3486    3       1157    3
CELAS1   1752    9       3487    3       1156    3
CELAS1   1755    9       3551    3       3431    3
$ ******************************************************************************
$ Joint VTP/FUSE
$ ******************************************************************************
$ --- x - direction ------------------------------------------------------------
$ Elements and Element Properties for region : spvtfux
PELAS    10     5.+7
$ Pset: "spvtfux" will be imported as: "pelas.10"
CELAS1   2091    1011    1231    1       2752    1
CELAS1   2094    1011    1232    1       2753    1
CELAS1   2097    1011    1233    1       2754    1
CELAS1   2100    1011    1234    1       2755    1
CELAS1   2103    1011    1235    1       2756    1
CELAS1   2106    1011    1240    1       2762    1
CELAS1   2109    1011    1241    1       2763    1
CELAS1   2112    1011    1242    1       2764    1
CELAS1   2115    1011    1243    1       2765    1
CELAS1   2118    1011    1244    1       2766    1
CELAS1   2121    1011    1249    1       2772    1
CELAS1   2124    1011    1250    1       2773    1
CELAS1   2127    1011    1251    1       2774    1
CELAS1   2130    1011    1252    1       2775    1
CELAS1   2133    1011    1253    1       2776    1
CELAS1   2136    1011    1195    1       2712    1
CELAS1   2139    1011    1196    1       2713    1
CELAS1   2142    1011    1197    1       2714    1
CELAS1   2145    1011    1198    1       2715    1
CELAS1   2148    1011    1199    1       2716    1
CELAS1   2151    1011    1204    1       2722    1
CELAS1   2154    1011    1205    1       2723    1
CELAS1   2157    1011    1206    1       2724    1
CELAS1   2160    1011    1207    1       2725    1
CELAS1   2163    1011    1208    1       2726    1
CELAS1   2166    1011    1213    1       2732    1
CELAS1   2169    1011    1214    1       2733    1
CELAS1   2172    1011    1215    1       2734    1
CELAS1   2175    1011    1216    1       2735    1
CELAS1   2178    1011    1217    1       2736    1
CELAS1   2181    1011    1222    1       2742    1
CELAS1   2184    1011    1223    1       2743    1
CELAS1   2187    1011    1224    1       2744    1
CELAS1   2190    1011    1225    1       2745    1
CELAS1   2193    1011    1226    1       2746    1
CELAS1   2196    1011    1316    1       2777    1
CELAS1   2199    1011    1309    1       2778    1
CELAS1   2202    1011    1311    1       2779    1
CELAS1   2205    1011    1313    1       2780    1
CELAS1   2208    1011    1315    1       2781    1
CELAS1   2211    1011    1299    1       2767    1
CELAS1   2214    1011    1301    1       2768    1
CELAS1   2217    1011    1303    1       2769    1
CELAS1   2220    1011    1305    1       2770    1
CELAS1   2223    1011    1307    1       2771    1
CELAS1   2226    1011    1290    1       2757    1
CELAS1   2229    1011    1292    1       2758    1
CELAS1   2232    1011    1294    1       2759    1
CELAS1   2235    1011    1296    1       2760    1
CELAS1   2238    1011    1298    1       2761    1
CELAS1   2241    1011    1281    1       2747    1
CELAS1   2244    1011    1283    1       2748    1
CELAS1   2247    1011    1285    1       2749    1
CELAS1   2250    1011    1287    1       2750    1
CELAS1   2253    1011    1289    1       2751    1
CELAS1   2256    1011    1272    1       2737    1
CELAS1   2259    1011    1274    1       2738    1
CELAS1   2262    1011    1276    1       2739    1
CELAS1   2265    1011    1278    1       2740    1
CELAS1   2268    1011    1280    1       2741    1
CELAS1   2271    1011    1263    1       2727    1
CELAS1   2274    1011    1265    1       2728    1
CELAS1   2277    1011    1267    1       2729    1
CELAS1   2280    1011    1269    1       2730    1
CELAS1   2283    1011    1271    1       2731    1
CELAS1   2286    1011    1254    1       2717    1
CELAS1   2289    1011    1256    1       2718    1
CELAS1   2292    1011    1258    1       2719    1
CELAS1   2295    1011    1260    1       2720    1
CELAS1   2298    1011    1262    1       2721    1
$ --- y - direction ------------------------------------------------------------
$ Elements and Element Properties for region : spvtfuy
PELAS    11     1.+7
$ Pset: "spvtfuy" will be imported as: "pelas.11"
CELAS1   2092    1012    1231    2       2752    2
CELAS1   2095    1012    1232    2       2753    2
CELAS1   2098    1012    1233    2       2754    2
CELAS1   2101    1012    1234    2       2755    2
CELAS1   2104    1012    1235    2       2756    2
CELAS1   2107    1012    1240    2       2762    2
CELAS1   2110    1012    1241    2       2763    2
CELAS1   2113    1012    1242    2       2764    2
CELAS1   2116    1012    1243    2       2765    2
CELAS1   2119    1012    1244    2       2766    2
CELAS1   2122    1012    1249    2       2772    2
CELAS1   2125    1012    1250    2       2773    2
CELAS1   2128    1012    1251    2       2774    2
CELAS1   2131    1012    1252    2       2775    2
CELAS1   2134    1012    1253    2       2776    2
CELAS1   2137    1012    1195    2       2712    2
CELAS1   2140    1012    1196    2       2713    2
CELAS1   2143    1012    1197    2       2714    2
CELAS1   2146    1012    1198    2       2715    2
CELAS1   2149    1012    1199    2       2716    2
CELAS1   2152    1012    1204    2       2722    2
CELAS1   2155    1012    1205    2       2723    2
CELAS1   2158    1012    1206    2       2724    2
CELAS1   2161    1012    1207    2       2725    2
CELAS1   2164    1012    1208    2       2726    2
CELAS1   2167    1012    1213    2       2732    2
CELAS1   2170    1012    1214    2       2733    2
CELAS1   2173    1012    1215    2       2734    2
CELAS1   2176    1012    1216    2       2735    2
CELAS1   2179    1012    1217    2       2736    2
CELAS1   2182    1012    1222    2       2742    2
CELAS1   2185    1012    1223    2       2743    2
CELAS1   2188    1012    1224    2       2744    2
CELAS1   2191    1012    1225    2       2745    2
CELAS1   2194    1012    1226    2       2746    2
CELAS1   2197    1012    1316    2       2777    2
CELAS1   2200    1012    1309    2       2778    2
CELAS1   2203    1012    1311    2       2779    2
CELAS1   2206    1012    1313    2       2780    2
CELAS1   2209    1012    1315    2       2781    2
CELAS1   2212    1012    1299    2       2767    2
CELAS1   2215    1012    1301    2       2768    2
CELAS1   2218    1012    1303    2       2769    2
CELAS1   2221    1012    1305    2       2770    2
CELAS1   2224    1012    1307    2       2771    2
CELAS1   2227    1012    1290    2       2757    2
CELAS1   2230    1012    1292    2       2758    2
CELAS1   2233    1012    1294    2       2759    2
CELAS1   2236    1012    1296    2       2760    2
CELAS1   2239    1012    1298    2       2761    2
CELAS1   2242    1012    1281    2       2747    2
CELAS1   2245    1012    1283    2       2748    2
CELAS1   2248    1012    1285    2       2749    2
CELAS1   2251    1012    1287    2       2750    2
CELAS1   2254    1012    1289    2       2751    2
CELAS1   2257    1012    1272    2       2737    2
CELAS1   2260    1012    1274    2       2738    2
CELAS1   2263    1012    1276    2       2739    2
CELAS1   2266    1012    1278    2       2740    2
CELAS1   2269    1012    1280    2       2741    2
CELAS1   2272    1012    1263    2       2727    2
CELAS1   2275    1012    1265    2       2728    2
CELAS1   2278    1012    1267    2       2729    2
CELAS1   2281    1012    1269    2       2730    2
CELAS1   2284    1012    1271    2       2731    2
CELAS1   2287    1012    1254    2       2717    2
CELAS1   2290    1012    1256    2       2718    2
CELAS1   2293    1012    1258    2       2719    2
CELAS1   2296    1012    1260    2       2720    2
CELAS1   2299    1012    1262    2       2721    2
$ --- z - direction ------------------------------------------------------------
$ Elements and Element Properties for region : spvtfuz
PELAS    12     5.+7
$ Pset: "spvtfuz" will be imported as: "pelas.12"
CELAS1   2093    12      1231    3       2752    3
CELAS1   2096    12      1232    3       2753    3
CELAS1   2099    12      1233    3       2754    3
CELAS1   2102    12      1234    3       2755    3
CELAS1   2105    12      1235    3       2756    3
CELAS1   2108    12      1240    3       2762    3
CELAS1   2111    12      1241    3       2763    3
CELAS1   2114    12      1242    3       2764    3
CELAS1   2117    12      1243    3       2765    3
CELAS1   2120    12      1244    3       2766    3
CELAS1   2123    12      1249    3       2772    3
CELAS1   2126    12      1250    3       2773    3
CELAS1   2129    12      1251    3       2774    3
CELAS1   2132    12      1252    3       2775    3
CELAS1   2135    12      1253    3       2776    3
CELAS1   2138    12      1195    3       2712    3
CELAS1   2141    12      1196    3       2713    3
CELAS1   2144    12      1197    3       2714    3
CELAS1   2147    12      1198    3       2715    3
CELAS1   2150    12      1199    3       2716    3
CELAS1   2153    12      1204    3       2722    3
CELAS1   2156    12      1205    3       2723    3
CELAS1   2159    12      1206    3       2724    3
CELAS1   2162    12      1207    3       2725    3
CELAS1   2165    12      1208    3       2726    3
CELAS1   2168    12      1213    3       2732    3
CELAS1   2171    12      1214    3       2733    3
CELAS1   2174    12      1215    3       2734    3
CELAS1   2177    12      1216    3       2735    3
CELAS1   2180    12      1217    3       2736    3
CELAS1   2183    12      1222    3       2742    3
CELAS1   2186    12      1223    3       2743    3
CELAS1   2189    12      1224    3       2744    3
CELAS1   2192    12      1225    3       2745    3
CELAS1   2195    12      1226    3       2746    3
CELAS1   2198    12      1316    3       2777    3
CELAS1   2201    12      1309    3       2778    3
CELAS1   2204    12      1311    3       2779    3
CELAS1   2207    12      1313    3       2780    3
CELAS1   2210    12      1315    3       2781    3
CELAS1   2213    12      1299    3       2767    3
CELAS1   2216    12      1301    3       2768    3
CELAS1   2219    12      1303    3       2769    3
CELAS1   2222    12      1305    3       2770    3
CELAS1   2225    12      1307    3       2771    3
CELAS1   2228    12      1290    3       2757    3
CELAS1   2231    12      1292    3       2758    3
CELAS1   2234    12      1294    3       2759    3
CELAS1   2237    12      1296    3       2760    3
CELAS1   2240    12      1298    3       2761    3
CELAS1   2243    12      1281    3       2747    3
CELAS1   2246    12      1283    3       2748    3
CELAS1   2249    12      1285    3       2749    3
CELAS1   2252    12      1287    3       2750    3
CELAS1   2255    12      1289    3       2751    3
CELAS1   2258    12      1272    3       2737    3
CELAS1   2261    12      1274    3       2738    3
CELAS1   2264    12      1276    3       2739    3
CELAS1   2267    12      1278    3       2740    3
CELAS1   2270    12      1280    3       2741    3
CELAS1   2273    12      1263    3       2727    3
CELAS1   2276    12      1265    3       2728    3
CELAS1   2279    12      1267    3       2729    3
CELAS1   2282    12      1269    3       2730    3
CELAS1   2285    12      1271    3       2731    3
CELAS1   2288    12      1254    3       2717    3
CELAS1   2291    12      1256    3       2718    3
CELAS1   2294    12      1258    3       2719    3
CELAS1   2297    12      1260    3       2720    3
CELAS1   2300    12      1262    3       2721    3
$ ******************************************************************************
$ Joint wing/winglet
$ ******************************************************************************
$ --- x - direction ------------------------------------------------------------
$ Elements and Element Properties for region : spwtwx
PELAS    13     5.+7
$ Pset: "spwtwx" will be imported as: "pelas.13"
CELAS1   1871    13      2367    1       2572    1
CELAS1   1874    13      2368    1       2577    1
CELAS1   1877    13      2369    1       2582    1
CELAS1   1880    13      2370    1       2587    1
CELAS1   1883    13      2371    1       2592    1
CELAS1   1886    13      2362    1       2573    1
CELAS1   1889    13      2363    1       2578    1
CELAS1   1892    13      2364    1       2583    1
CELAS1   1895    13      2365    1       2588    1
CELAS1   1898    13      2366    1       2593    1
CELAS1   1901    13      2357    1       2574    1
CELAS1   1904    13      2358    1       2579    1
CELAS1   1907    13      2359    1       2584    1
CELAS1   1910    13      2360    1       2589    1
CELAS1   1913    13      2361    1       2594    1
CELAS1   1916    13      2352    1       2575    1
CELAS1   1919    13      2353    1       2580    1
CELAS1   1922    13      2354    1       2585    1
CELAS1   1925    13      2355    1       2590    1
CELAS1   1928    13      2356    1       2595    1
CELAS1   1931    13      2347    1       2576    1
CELAS1   1934    13      2348    1       2581    1
CELAS1   1937    13      2349    1       2586    1
CELAS1   1940    13      2350    1       2591    1
CELAS1   1943    13      2351    1       2596    1
CELAS1   1946    13      1987    1       2446    1
CELAS1   1949    13      1988    1       2447    1
CELAS1   1952    13      1989    1       2448    1
CELAS1   1955    13      1990    1       2449    1
CELAS1   1958    13      1991    1       2450    1
CELAS1   1961    13      1982    1       2429    1
CELAS1   1964    13      1983    1       2430    1
CELAS1   1967    13      1984    1       2431    1
CELAS1   1970    13      1985    1       2432    1
CELAS1   1973    13      1986    1       2433    1
CELAS1   1976    13      1977    1       2412    1
CELAS1   1979    13      1978    1       2413    1
CELAS1   1982    13      1979    1       2414    1
CELAS1   1985    13      1980    1       2415    1
CELAS1   1988    13      1981    1       2416    1
CELAS1   1991    13      1972    1       2395    1
CELAS1   1994    13      1973    1       2396    1
CELAS1   1997    13      1974    1       2397    1
CELAS1   2000    13      1975    1       2398    1
CELAS1   2003    13      1976    1       2399    1
CELAS1   2006    13      1967    1       2378    1
CELAS1   2009    13      1968    1       2379    1
CELAS1   2012    13      1969    1       2380    1
CELAS1   2015    13      1970    1       2381    1
CELAS1   2018    13      1971    1       2382    1
$ --- y - direction ------------------------------------------------------------
$ Elements and Element Properties for region : spwtwy
PELAS    14     5.+7
$ Pset: "spwtwy" will be imported as: "pelas.14"
CELAS1   1872    14      2367    2       2572    2
CELAS1   1875    14      2368    2       2577    2
CELAS1   1878    14      2369    2       2582    2
CELAS1   1881    14      2370    2       2587    2
CELAS1   1884    14      2371    2       2592    2
CELAS1   1887    14      2362    2       2573    2
CELAS1   1890    14      2363    2       2578    2
CELAS1   1893    14      2364    2       2583    2
CELAS1   1896    14      2365    2       2588    2
CELAS1   1899    14      2366    2       2593    2
CELAS1   1902    14      2357    2       2574    2
CELAS1   1905    14      2358    2       2579    2
CELAS1   1908    14      2359    2       2584    2
CELAS1   1911    14      2360    2       2589    2
CELAS1   1914    14      2361    2       2594    2
CELAS1   1917    14      2352    2       2575    2
CELAS1   1920    14      2353    2       2580    2
CELAS1   1923    14      2354    2       2585    2
CELAS1   1926    14      2355    2       2590    2
CELAS1   1929    14      2356    2       2595    2
CELAS1   1932    14      2347    2       2576    2
CELAS1   1935    14      2348    2       2581    2
CELAS1   1938    14      2349    2       2586    2
CELAS1   1941    14      2350    2       2591    2
CELAS1   1944    14      2351    2       2596    2
CELAS1   1947    14      1987    2       2446    2
CELAS1   1950    14      1988    2       2447    2
CELAS1   1953    14      1989    2       2448    2
CELAS1   1956    14      1990    2       2449    2
CELAS1   1959    14      1991    2       2450    2
CELAS1   1962    14      1982    2       2429    2
CELAS1   1965    14      1983    2       2430    2
CELAS1   1968    14      1984    2       2431    2
CELAS1   1971    14      1985    2       2432    2
CELAS1   1974    14      1986    2       2433    2
CELAS1   1977    14      1977    2       2412    2
CELAS1   1980    14      1978    2       2413    2
CELAS1   1983    14      1979    2       2414    2
CELAS1   1986    14      1980    2       2415    2
CELAS1   1989    14      1981    2       2416    2
CELAS1   1992    14      1972    2       2395    2
CELAS1   1995    14      1973    2       2396    2
CELAS1   1998    14      1974    2       2397    2
CELAS1   2001    14      1975    2       2398    2
CELAS1   2004    14      1976    2       2399    2
CELAS1   2007    14      1967    2       2378    2
CELAS1   2010    14      1968    2       2379    2
CELAS1   2013    14      1969    2       2380    2
CELAS1   2016    14      1970    2       2381    2
CELAS1   2019    14      1971    2       2382    2
$ --- z - direction ------------------------------------------------------------
$ Elements and Element Properties for region : spwtwz
PELAS    15     5.+7
$ Pset: "spwtwz" will be imported as: "pelas.15"
CELAS1   1873    15      2367    3       2572    3
CELAS1   1876    15      2368    3       2577    3
CELAS1   1879    15      2369    3       2582    3
CELAS1   1882    15      2370    3       2587    3
CELAS1   1885    15      2371    3       2592    3
CELAS1   1888    15      2362    3       2573    3
CELAS1   1891    15      2363    3       2578    3
CELAS1   1894    15      2364    3       2583    3
CELAS1   1897    15      2365    3       2588    3
CELAS1   1900    15      2366    3       2593    3
CELAS1   1903    15      2357    3       2574    3
CELAS1   1906    15      2358    3       2579    3
CELAS1   1909    15      2359    3       2584    3
CELAS1   1912    15      2360    3       2589    3
CELAS1   1915    15      2361    3       2594    3
CELAS1   1918    15      2352    3       2575    3
CELAS1   1921    15      2353    3       2580    3
CELAS1   1924    15      2354    3       2585    3
CELAS1   1927    15      2355    3       2590    3
CELAS1   1930    15      2356    3       2595    3
CELAS1   1933    15      2347    3       2576    3
CELAS1   1936    15      2348    3       2581    3
CELAS1   1939    15      2349    3       2586    3
CELAS1   1942    15      2350    3       2591    3
CELAS1   1945    15      2351    3       2596    3
CELAS1   1948    15      1987    3       2446    3
CELAS1   1951    15      1988    3       2447    3
CELAS1   1954    15      1989    3       2448    3
CELAS1   1957    15      1990    3       2449    3
CELAS1   1960    15      1991    3       2450    3
CELAS1   1963    15      1982    3       2429    3
CELAS1   1966    15      1983    3       2430    3
CELAS1   1969    15      1984    3       2431    3
CELAS1   1972    15      1985    3       2432    3
CELAS1   1975    15      1986    3       2433    3
CELAS1   1978    15      1977    3       2412    3
CELAS1   1981    15      1978    3       2413    3
CELAS1   1984    15      1979    3       2414    3
CELAS1   1987    15      1980    3       2415    3
CELAS1   1990    15      1981    3       2416    3
CELAS1   1993    15      1972    3       2395    3
CELAS1   1996    15      1973    3       2396    3
CELAS1   1999    15      1974    3       2397    3
CELAS1   2002    15      1975    3       2398    3
CELAS1   2005    15      1976    3       2399    3
CELAS1   2008    15      1967    3       2378    3
CELAS1   2011    15      1968    3       2379    3
CELAS1   2014    15      1969    3       2380    3
CELAS1   2017    15      1970    3       2381    3
CELAS1   2020    15      1971    3       2382    3

$ ###  N O N   S T R U C T U R A L   M A S S E S  ###################### start -
$ ******************************************************************************
$ sensor masses at measurement points
$ ******************************************************************************
$ Elements and Element Properties for region : sensor_mass_wingtip
PMASS    105     .015                                                           
CMASS1   1357    1016    2457    1                                            
CMASS1   1358    1016    2463    1                                            
CMASS1   1359    1016    2467    1                                            
CMASS1   1360    1016    2473    1                                            
CMASS1   1361    1016    2707    1                                            
CMASS1   1362    1016    2677    1                                            
CMASS1   1363    1016    2657    1                                            
CMASS1   1364    1016    2627    1                                            
CMASS1   2357    1016    2457    2                                            
CMASS1   2358    1016    2463    2                                            
CMASS1   2359    1016    2467    2                                            
CMASS1   2360    1016    2473    2                                            
CMASS1   2361    1016    2707    2                                            
CMASS1   2362    1016    2677    2                                            
CMASS1   2363    1016    2657    2                                            
CMASS1   2364    1016    2627    2                                            
CMASS1   3357    1016    2457    3                                            
CMASS1   3358    1016    2463    3                                            
CMASS1   3359    1016    2467    3                                            
CMASS1   3360    1016    2473    3                                            
CMASS1   3361    1016    2707    3                                            
CMASS1   3362    1016    2677    3                                            
CMASS1   3363    1016    2657    3                                            
CMASS1   3364    1016    2627    3                                            
$ Elements and Element Properties for region : sensor_mass_outerwing
PMASS    106     .015                                                           
CMASS1   1371    1017    1886    1                                            
CMASS1   1372    1017    1882    1                                            
CMASS1   1373    1017    1646    1                                            
CMASS1   1374    1017    1642    1                                            
CMASS1   2371    1017    1886    2                                            
CMASS1   2372    1017    1882    2                                            
CMASS1   2373    1017    1646    2                                            
CMASS1   2374    1017    1642    2                                            
CMASS1   3371    1017    1886    3                                            
CMASS1   3372    1017    1882    3                                            
CMASS1   3373    1017    1646    3                                            
CMASS1   3374    1017    1642    3                                            
$ Elements and Element Properties for region : sensor_mass_innerwing
PMASS    107     .015                                                           
CMASS1   1367    1018    1826    1                                            
CMASS1   1368    1018    1822    1                                            
CMASS1   1369    1018    1706    1                                            
CMASS1   1370    1018    1702    1                                            
CMASS1   2367    1018    1826    2                                            
CMASS1   2368    1018    1822    2                                            
CMASS1   2369    1018    1706    2                                            
CMASS1   2370    1018    1702    2                                            
CMASS1   3367    1018    1826    3                                            
CMASS1   3368    1018    1822    3                                            
CMASS1   3369    1018    1706    3                                            
CMASS1   3370    1018    1702    3                                            

$ Elements and Element Properties for region : sensor_mass
CONM2    1339    1078    0      .015     0.      0.      0.
         0.      0.      0.      0.      0.      0.
CONM2    1340    1078    0      .015     0.      0.      0.
         0.      0.      0.      0.      0.      0.
CONM2    1341    568     0      .015     0.      0.      0.
         0.      0.      0.      0.      0.      0.
CONM2    1342    58      0      .015     0.      0.      0.
         0.      0.      0.      0.      0.      0.
CONM2    1343    1099    0      .015     0.      0.      0.
         0.      0.      0.      0.      0.      0.
CONM2    1344    1099    0      .015     0.      0.      0.
         0.      0.      0.      0.      0.      0.
CONM2    1345    1099    0      .015     0.      0.      0.
         0.      0.      0.      0.      0.      0.
CONM2    1346    79      0      .015     0.      0.      0.
         0.      0.      0.      0.      0.      0.
CONM2    1348    1192    0      .015     0.      0.      0.
         0.      0.      0.      0.      0.      0.
CONM2    1349    1246    0      .015     0.      0.      0.
         0.      0.      0.      0.      0.      0.
CONM2    1350    2834    0      .015     0.      0.      0.
         0.      0.      0.      0.      0.      0.
CONM2    1351    1427    0      .015     0.      0.      0.
         0.      0.      0.      0.      0.      0.
CONM2    1352    1427    0      .015     0.      0.      0.
         0.      0.      0.      0.      0.      0.
CONM2    1353    1507    0      .015     0.      0.      0.
         0.      0.      0.      0.      0.      0.
CONM2    1354    1507    0      .015     0.      0.      0.
         0.      0.      0.      0.      0.      0.
CONM2    1355    2167    0      .015     0.      0.      0.
         0.      0.      0.      0.      0.      0.
CONM2    1356    3089    0      .015     0.      0.      0.
         0.      0.      0.      0.      0.      0.
         
$ ******************************************************************************
$ single_mass at wing tip
$ ******************************************************************************
$ Elements and Element Properties for region : single_mass at wing tip
$-----1||-----2||-----3||-----4||-----5||-----6||-----7||-----8||-----9||----10|
$ Elements and Element Properties for region : wingtip_mass
PMASS    104     .186
CMASS1   8001    1013    2633    1
CMASS1   8002    1013    2633    2
CMASS1   8003    1013    2633    3
CMASS1   8004    1014    2475    1
CMASS1   8005    1014    2475    2
CMASS1   8006    1014    2475    3
$ Elements and Element Properties for region : support_mass
CONM2    1347    603     0      .66      0.      0.      0.
         0.      0.      0.      0.      0.      0.

$ ******************************************************************************
$ mass for wing/fuse connection
$ ******************************************************************************
$ Mass is already modelled by volume elements at wing/fuse connection!!!
$CONM2    8000    3595    0      .544     0.      0.      0.
$         0.      0.      0.      0.      0.      0.

$ ******************************************************************************
$ mass for vtp/htp connection
$ ******************************************************************************
$ Elements and Element Properties for region : tuning mass for v/h connection
$-----1||-----2||-----3||-----4||-----5||-----6||-----7||-----8||-----9||----10|
PMASS    103    .20
$CMASS1   9001    103     3089    1
CMASS1   9002    1015    3089    2
$CMASS1   9003    103     3089    3
$ ###  N O N   S T R U C T U R A L   M A S S E S  ######################## end -

$ Elements and Element Properties for region : p3d
PSOLID   18      1       0
$ Pset: "p3d" will be imported as: "psolid.18"
CHEXA    1       18      1       2       59      58      171     172
         229     228
CHEXA    2       18      2       3       60      59      172     173
         230     229
CHEXA    3       18      3       4       61      60      173     174
         231     230
CHEXA    4       18      4       5       62      61      174     175
         232     231
CHEXA    5       18      5       6       63      62      175     176
         233     232
CHEXA    6       18      6       7       64      63      176     177
         234     233
CHEXA    7       18      7       8       65      64      177     178
         235     234
CHEXA    8       18      8       9       66      65      178     179
         236     235
CHEXA    9       18      9       10      67      66      179     180
         237     236
CHEXA    10      18      10      11      68      67      180     181
         238     237
CHEXA    11      18      11      12      69      68      181     182
         239     238
CHEXA    12      18      12      13      70      69      182     183
         240     239
CHEXA    13      18      13      14      71      70      183     184
         241     240
CHEXA    14      18      14      15      72      71      184     185
         242     241
CHEXA    15      18      15      16      73      72      185     186
         243     242
CHEXA    16      18      16      17      74      73      186     187
         244     243
CHEXA    17      18      17      18      75      74      187     188
         245     244
CHEXA    18      18      18      19      76      75      188     189
         246     245
CHEXA    19      18      19      20      77      76      189     190
         247     246
CHEXA    20      18      20      21      78      77      190     191
         248     247
CHEXA    21      18      21      22      79      78      191     192
         249     248
CHEXA    23      18      23      24      81      80      193     194
         251     250
CHEXA    24      18      24      25      82      81      194     195
         252     251
CHEXA    25      18      25      26      83      82      195     196
         253     252
CHEXA    26      18      26      27      84      83      196     197
         254     253
CHEXA    28      18      28      29      86      85      198     199
         256     255
CHEXA    29      18      29      30      87      86      199     200
         257     256
CHEXA    30      18      30      31      88      87      200     201
         258     257
CHEXA    31      18      31      32      89      88      201     202
         259     258
CHEXA    32      18      32      33      90      89      202     203
         260     259
CHEXA    33      18      33      34      91      90      203     204
         261     260
CHEXA    34      18      34      35      92      91      204     205
         262     261
CHEXA    35      18      35      36      93      92      205     206
         263     262
CHEXA    36      18      36      37      94      93      206     207
         264     263
CHEXA    37      18      37      38      95      94      207     208
         265     264
CHEXA    38      18      38      39      96      95      208     209
         266     265
CHEXA    39      18      39      40      97      96      209     210
         267     266
CHEXA    40      18      40      41      98      97      210     211
         268     267
CHEXA    41      18      41      42      99      98      211     212
         269     268
CHEXA    42      18      42      43      100     99      212     213
         270     269
CHEXA    43      18      43      44      101     100     213     214
         271     270
CHEXA    44      18      44      45      102     101     214     215
         272     271
CHEXA    45      18      45      46      103     102     215     216
         273     272
CHEXA    46      18      46      47      104     103     216     217
         274     273
CHEXA    47      18      47      48      105     104     217     218
         275     274
CHEXA    48      18      48      49      106     105     218     219
         276     275
CHEXA    49      18      49      50      107     106     219     220
         277     276
CHEXA    50      18      50      51      108     107     220     221
         278     277
CHEXA    51      18      51      52      109     108     221     222
         279     278
CHEXA    52      18      52      53      110     109     222     223
         280     279
CHEXA    53      18      53      54      111     110     223     224
         281     280
CHEXA    54      18      54      55      112     111     224     225
         282     281
CHEXA    55      18      55      56      113     112     225     226
         283     282
CHEXA    56      18      58      59      115     114     228     229
         285     284
CHEXA    57      18      59      60      116     115     229     230
         286     285
CHEXA    58      18      60      61      117     116     230     231
         287     286
CHEXA    59      18      61      62      118     117     231     232
         288     287
CHEXA    60      18      62      63      119     118     232     233
         289     288
CHEXA    61      18      63      64      120     119     233     234
         290     289
CHEXA    62      18      64      65      121     120     234     235
         291     290
CHEXA    63      18      65      66      122     121     235     236
         292     291
CHEXA    64      18      66      67      123     122     236     237
         293     292
CHEXA    65      18      67      68      124     123     237     238
         294     293
CHEXA    66      18      68      69      125     124     238     239
         295     294
CHEXA    67      18      69      70      126     125     239     240
         296     295
CHEXA    68      18      70      71      127     126     240     241
         297     296
CHEXA    69      18      71      72      128     127     241     242
         298     297
CHEXA    70      18      72      73      129     128     242     243
         299     298
CHEXA    71      18      73      74      130     129     243     244
         300     299
CHEXA    72      18      74      75      131     130     244     245
         301     300
CHEXA    73      18      75      76      132     131     245     246
         302     301
CHEXA    74      18      76      77      133     132     246     247
         303     302
CHEXA    75      18      77      78      134     133     247     248
         304     303
CHEXA    76      18      78      79      135     134     248     249
         305     304
CHEXA    78      18      80      81      137     136     250     251
         307     306
CHEXA    79      18      81      82      138     137     251     252
         308     307
CHEXA    80      18      82      83      139     138     252     253
         309     308
CHEXA    81      18      83      84      140     139     253     254
         310     309
CHEXA    83      18      85      86      142     141     255     256
         312     311
CHEXA    84      18      86      87      143     142     256     257
         313     312
CHEXA    85      18      87      88      144     143     257     258
         314     313
CHEXA    86      18      88      89      145     144     258     259
         315     314
CHEXA    87      18      89      90      146     145     259     260
         316     315
CHEXA    88      18      90      91      147     146     260     261
         317     316
CHEXA    89      18      91      92      148     147     261     262
         318     317
CHEXA    90      18      92      93      149     148     262     263
         319     318
CHEXA    91      18      93      94      150     149     263     264
         320     319
CHEXA    92      18      94      95      151     150     264     265
         321     320
CHEXA    93      18      95      96      152     151     265     266
         322     321
CHEXA    94      18      96      97      153     152     266     267
         323     322
CHEXA    95      18      97      98      154     153     267     268
         324     323
CHEXA    96      18      98      99      155     154     268     269
         325     324
CHEXA    97      18      99      100     156     155     269     270
         326     325
CHEXA    98      18      100     101     157     156     270     271
         327     326
CHEXA    99      18      101     102     158     157     271     272
         328     327
CHEXA    100     18      102     103     159     158     272     273
         329     328
CHEXA    101     18      103     104     160     159     273     274
         330     329
CHEXA    102     18      104     105     161     160     274     275
         331     330
CHEXA    103     18      105     106     162     161     275     276
         332     331
CHEXA    104     18      106     107     163     162     276     277
         333     332
CHEXA    105     18      107     108     164     163     277     278
         334     333
CHEXA    106     18      108     109     165     164     278     279
         335     334
CHEXA    107     18      109     110     166     165     279     280
         336     335
CHEXA    108     18      110     111     167     166     280     281
         337     336
CHEXA    109     18      111     112     168     167     281     282
         338     337
CHEXA    110     18      112     113     169     168     282     283
         339     338
CHEXA    111     18      113     1254    170     169     283     1263
         340     339
CHEXA    112     18      171     172     229     228     341     342
         399     398
CHEXA    113     18      172     173     230     229     342     343
         400     399
CHEXA    114     18      173     174     231     230     343     344
         401     400
CHEXA    115     18      174     175     232     231     344     345
         402     401
CHEXA    116     18      175     176     233     232     345     346
         403     402
CHEXA    117     18      176     177     234     233     346     347
         404     403
CHEXA    118     18      177     178     235     234     347     348
         405     404
CHEXA    119     18      178     179     236     235     348     349
         406     405
CHEXA    120     18      179     180     237     236     349     350
         407     406
CHEXA    121     18      180     181     238     237     350     351
         408     407
CHEXA    122     18      181     182     239     238     351     352
         409     408
CHEXA    123     18      182     183     240     239     352     353
         410     409
CHEXA    124     18      183     184     241     240     353     354
         411     410
CHEXA    125     18      184     185     242     241     354     355
         412     411
CHEXA    126     18      185     186     243     242     355     356
         413     412
CHEXA    127     18      186     187     244     243     356     357
         414     413
CHEXA    128     18      187     188     245     244     357     358
         415     414
CHEXA    129     18      188     189     246     245     358     359
         416     415
CHEXA    130     18      189     190     247     246     359     360
         417     416
CHEXA    131     18      190     191     248     247     360     361
         418     417
CHEXA    132     18      191     192     249     248     361     362
         419     418
CHEXA    134     18      193     194     251     250     363     364
         421     420
CHEXA    135     18      194     195     252     251     364     365
         422     421
CHEXA    136     18      195     196     253     252     365     366
         423     422
CHEXA    137     18      196     197     254     253     366     367
         424     423
CHEXA    139     18      198     199     256     255     368     369
         426     425
CHEXA    140     18      199     200     257     256     369     370
         427     426
CHEXA    141     18      200     201     258     257     370     371
         428     427
CHEXA    142     18      201     202     259     258     371     372
         429     428
CHEXA    143     18      202     203     260     259     372     373
         430     429
CHEXA    144     18      203     204     261     260     373     374
         431     430
CHEXA    145     18      204     205     262     261     374     375
         432     431
CHEXA    146     18      205     206     263     262     375     376
         433     432
CHEXA    147     18      206     207     264     263     376     377
         434     433
CHEXA    148     18      207     208     265     264     377     378
         435     434
CHEXA    149     18      208     209     266     265     378     379
         436     435
CHEXA    150     18      209     210     267     266     379     380
         437     436
CHEXA    151     18      210     211     268     267     380     381
         438     437
CHEXA    152     18      211     212     269     268     381     382
         439     438
CHEXA    153     18      212     213     270     269     382     383
         440     439
CHEXA    154     18      213     214     271     270     383     384
         441     440
CHEXA    155     18      214     215     272     271     384     385
         442     441
CHEXA    156     18      215     216     273     272     385     386
         443     442
CHEXA    157     18      216     217     274     273     386     387
         444     443
CHEXA    158     18      217     218     275     274     387     388
         445     444
CHEXA    159     18      218     219     276     275     388     389
         446     445
CHEXA    160     18      219     220     277     276     389     390
         447     446
CHEXA    161     18      220     221     278     277     390     391
         448     447
CHEXA    162     18      221     222     279     278     391     392
         449     448
CHEXA    163     18      222     223     280     279     392     393
         450     449
CHEXA    164     18      223     224     281     280     393     394
         451     450
CHEXA    165     18      224     225     282     281     394     395
         452     451
CHEXA    166     18      225     226     283     282     395     396
         453     452
CHEXA    167     18      228     229     285     284     398     399
         455     454
CHEXA    168     18      229     230     286     285     399     400
         456     455
CHEXA    169     18      230     231     287     286     400     401
         457     456
CHEXA    170     18      231     232     288     287     401     402
         458     457
CHEXA    171     18      232     233     289     288     402     403
         459     458
CHEXA    172     18      233     234     290     289     403     404
         460     459
CHEXA    173     18      234     235     291     290     404     405
         461     460
CHEXA    174     18      235     236     292     291     405     406
         462     461
CHEXA    175     18      236     237     293     292     406     407
         463     462
CHEXA    176     18      237     238     294     293     407     408
         464     463
CHEXA    177     18      238     239     295     294     408     409
         465     464
CHEXA    178     18      239     240     296     295     409     410
         466     465
CHEXA    179     18      240     241     297     296     410     411
         467     466
CHEXA    180     18      241     242     298     297     411     412
         468     467
CHEXA    181     18      242     243     299     298     412     413
         469     468
CHEXA    182     18      243     244     300     299     413     414
         470     469
CHEXA    183     18      244     245     301     300     414     415
         471     470
CHEXA    184     18      245     246     302     301     415     416
         472     471
CHEXA    185     18      246     247     303     302     416     417
         473     472
CHEXA    186     18      247     248     304     303     417     418
         474     473
CHEXA    187     18      248     249     305     304     418     419
         475     474
CHEXA    189     18      250     251     307     306     420     421
         477     476
CHEXA    190     18      251     252     308     307     421     422
         478     477
CHEXA    191     18      252     253     309     308     422     423
         479     478
CHEXA    192     18      253     254     310     309     423     424
         480     479
CHEXA    194     18      255     256     312     311     425     426
         482     481
CHEXA    195     18      256     257     313     312     426     427
         483     482
CHEXA    196     18      257     258     314     313     427     428
         484     483
CHEXA    197     18      258     259     315     314     428     429
         485     484
CHEXA    198     18      259     260     316     315     429     430
         486     485
CHEXA    199     18      260     261     317     316     430     431
         487     486
CHEXA    200     18      261     262     318     317     431     432
         488     487
CHEXA    201     18      262     263     319     318     432     433
         489     488
CHEXA    202     18      263     264     320     319     433     434
         490     489
CHEXA    203     18      264     265     321     320     434     435
         491     490
CHEXA    204     18      265     266     322     321     435     436
         492     491
CHEXA    205     18      266     267     323     322     436     437
         493     492
CHEXA    206     18      267     268     324     323     437     438
         494     493
CHEXA    207     18      268     269     325     324     438     439
         495     494
CHEXA    208     18      269     270     326     325     439     440
         496     495
CHEXA    209     18      270     271     327     326     440     441
         497     496
CHEXA    210     18      271     272     328     327     441     442
         498     497
CHEXA    211     18      272     273     329     328     442     443
         499     498
CHEXA    212     18      273     274     330     329     443     444
         500     499
CHEXA    213     18      274     275     331     330     444     445
         501     500
CHEXA    214     18      275     276     332     331     445     446
         502     501
CHEXA    215     18      276     277     333     332     446     447
         503     502
CHEXA    216     18      277     278     334     333     447     448
         504     503
CHEXA    217     18      278     279     335     334     448     449
         505     504
[...]
GRID     3155           1.4     -.158214.45     
GRID     3156           1.4     -.144286.45     
GRID     3157           1.4     -.130357.45     
GRID     3158           1.4     -.116429.45     
GRID     3159           1.4     -.1025  .45     
GRID     3160           1.4     -.088571.45     
GRID     3161           1.4     -.074642.45     
GRID     3162           1.4     -.060714.45     
GRID     3163           1.4     -.046785.45     
GRID     3164           1.4     -.032857.45     
GRID     3165           1.4     -1.600-2.45     
GRID     3167           1.5     -.2     .46     
GRID     3168           1.5     -.186071.46     
GRID     3169           1.5     -.172143.46     
GRID     3170           1.5     -.158214.46     
GRID     3171           1.5     -.144286.46     
GRID     3172           1.5     -.130357.46     
GRID     3173           1.5     -.116429.46     
GRID     3174           1.5     -.1025  .46     
GRID     3175           1.5     -.088571.46     
GRID     3176           1.5     -.074642.46     
GRID     3177           1.5     -.060714.46     
GRID     3178           1.5     -.046785.46     
GRID     3179           1.5     -.032857.46     
GRID     3180           1.5     -1.600-2.46     
GRID     3182           1.475   -.2     .46     
GRID     3183           1.475   -.186071.46     
GRID     3184           1.475   -.172143.46     
GRID     3185           1.475   -.158214.46     
GRID     3186           1.475   -.144286.46     
GRID     3187           1.475   -.130357.46     
GRID     3188           1.475   -.116429.46     
GRID     3189           1.475   -.1025  .46     
GRID     3190           1.475   -.088571.46     
GRID     3191           1.475   -.074642.46     
GRID     3192           1.475   -.060714.46     
GRID     3193           1.475   -.046785.46     
GRID     3194           1.475   -.032857.46     
GRID     3195           1.475   -1.600-2.46     
GRID     3197           1.45    -.2     .46     
GRID     3198           1.45    -.186071.46     
GRID     3199           1.45    -.172143.46     
GRID     3200           1.45    -.158214.46     
GRID     3201           1.45    -.144286.46     
GRID     3202           1.45    -.130357.46     
GRID     3203           1.45    -.116429.46     
GRID     3204           1.45    -.1025  .46     
GRID     3205           1.45    -.088571.46     
GRID     3206           1.45    -.074642.46     
GRID     3207           1.45    -.060714.46     
GRID     3208           1.45    -.046785.46     
GRID     3209           1.45    -.032857.46     
GRID     3210           1.45    -1.600-2.46     
GRID     3212           1.425   -.2     .46     
GRID     3213           1.425   -.186071.46     
GRID     3214           1.425   -.172143.46     
GRID     3215           1.425   -.158214.46     
GRID     3216           1.425   -.144286.46     
GRID     3217           1.425   -.130357.46     
GRID     3218           1.425   -.116429.46     
GRID     3219           1.425   -.1025  .46     
GRID     3220           1.425   -.088571.46     
GRID     3221           1.425   -.074642.46     
GRID     3222           1.425   -.060714.46     
GRID     3223           1.425   -.046785.46     
GRID     3224           1.425   -.032857.46     
GRID     3225           1.425   -1.600-2.46     
GRID     3228           1.4     -.186071.46     
GRID     3229           1.4     -.172143.46     
GRID     3230           1.4     -.158214.46     
GRID     3231           1.4     -.144286.46     
GRID     3232           1.4     -.130357.46     
GRID     3233           1.4     -.116429.46     
GRID     3234           1.4     -.1025  .46     
GRID     3235           1.4     -.088571.46     
GRID     3236           1.4     -.074642.46     
GRID     3237           1.4     -.060714.46     
GRID     3238           1.4     -.046785.46     
GRID     3239           1.4     -.032857.46     
GRID     3240           1.4     -1.600-2.46     
GRID     3242           1.5     .2      .45     
GRID     3243           1.475   .2      .45     
GRID     3244           1.45    .2      .45     
GRID     3245           1.425   .2      .45     
GRID     3246           1.4     .2      .45     
GRID     3247           1.5     .186071 .45     
GRID     3248           1.475   .186071 .45     
GRID     3249           1.45    .186071 .45     
GRID     3250           1.425   .186071 .45     
GRID     3251           1.4     .186071 .45     
GRID     3252           1.5     .172143 .45     
GRID     3253           1.475   .172143 .45     
GRID     3254           1.45    .172143 .45     
GRID     3255           1.425   .172143 .45     
GRID     3256           1.4     .172143 .45     
GRID     3257           1.5     .158214 .45     
GRID     3258           1.475   .158214 .45     
GRID     3259           1.45    .158214 .45     
GRID     3260           1.425   .158214 .45     
GRID     3261           1.4     .158214 .45     
GRID     3262           1.5     .144286 .45     
GRID     3263           1.475   .144286 .45     
GRID     3264           1.45    .144286 .45     
GRID     3265           1.425   .144286 .45     
GRID     3266           1.4     .144286 .45     
GRID     3267           1.5     .130357 .45     
GRID     3268           1.475   .130357 .45     
GRID     3269           1.45    .130357 .45     
GRID     3270           1.425   .130357 .45     
GRID     3271           1.4     .130357 .45     
GRID     3272           1.5     .116429 .45     
GRID     3273           1.475   .116429 .45     
GRID     3274           1.45    .116429 .45     
GRID     3275           1.425   .116429 .45     
GRID     3276           1.4     .116429 .45     
GRID     3277           1.5     .1025   .45     
GRID     3278           1.475   .1025   .45     
GRID     3279           1.45    .1025   .45     
GRID     3280           1.425   .1025   .45     
GRID     3281           1.4     .1025   .45     
GRID     3282           1.5     .0885714.45     
GRID     3283           1.475   .0885714.45     
GRID     3284           1.45    .0885714.45     
GRID     3285           1.425   .0885714.45     
GRID     3286           1.4     .0885714.45     
GRID     3287           1.5     .0746429.45     
GRID     3288           1.475   .0746429.45     
GRID     3289           1.45    .0746429.45     
GRID     3290           1.425   .0746429.45     
GRID     3291           1.4     .0746429.45     
GRID     3292           1.5     .0607143.45     
GRID     3293           1.475   .0607143.45     
GRID     3294           1.45    .0607143.45     
GRID     3295           1.425   .0607143.45     
GRID     3296           1.4     .0607143.45     
GRID     3297           1.5     .0467857.45     
GRID     3298           1.475   .0467857.45     
GRID     3299           1.45    .0467857.45     
GRID     3300           1.425   .0467857.45     
GRID     3301           1.4     .0467857.45     
GRID     3302           1.5     .0328571.45     
GRID     3303           1.475   .0328571.45     
GRID     3304           1.45    .0328571.45     
GRID     3305           1.425   .0328571.45     
GRID     3306           1.4     .0328571.45     
GRID     3307           1.5      1.600-2.45     
GRID     3308           1.475    1.600-2.45     
GRID     3309           1.45     1.600-2.45     
GRID     3310           1.425    1.600-2.45     
GRID     3311           1.4      1.600-2.45     
GRID     3317           1.5     .2      .46     
GRID     3318           1.475   .2      .46     
GRID     3319           1.45    .2      .46     
GRID     3320           1.425   .2      .46     
GRID     3322           1.5     .186071 .46     
GRID     3323           1.475   .186071 .46     
GRID     3324           1.45    .186071 .46     
GRID     3325           1.425   .186071 .46     
GRID     3326           1.4     .186071 .46     
GRID     3327           1.5     .172143 .46     
GRID     3328           1.475   .172143 .46     
GRID     3329           1.45    .172143 .46     
GRID     3330           1.425   .172143 .46     
GRID     3331           1.4     .172143 .46     
GRID     3332           1.5     .158214 .46     
GRID     3333           1.475   .158214 .46     
GRID     3334           1.45    .158214 .46     
GRID     3335           1.425   .158214 .46     
GRID     3336           1.4     .158214 .46     
GRID     3337           1.5     .144286 .46     
GRID     3338           1.475   .144286 .46     
GRID     3339           1.45    .144286 .46     
GRID     3340           1.425   .144286 .46     
GRID     3341           1.4     .144286 .46     
GRID     3342           1.5     .130357 .46     
GRID     3343           1.475   .130357 .46     
GRID     3344           1.45    .130357 .46     
GRID     3345           1.425   .130357 .46     
GRID     3346           1.4     .130357 .46     
GRID     3347           1.5     .116429 .46     
GRID     3348           1.475   .116429 .46     
GRID     3349           1.45    .116429 .46     
GRID     3350           1.425   .116429 .46     
GRID     3351           1.4     .116429 .46     
GRID     3352           1.5     .1025   .46     
GRID     3353           1.475   .1025   .46     
GRID     3354           1.45    .1025   .46     
GRID     3355           1.425   .1025   .46     
GRID     3356           1.4     .1025   .46     
GRID     3357           1.5     .0885714.46     
GRID     3358           1.475   .0885714.46     
GRID     3359           1.45    .0885714.46     
GRID     3360           1.425   .0885714.46     
GRID     3361           1.4     .0885714.46     
GRID     3362           1.5     .0746429.46     
GRID     3363           1.475   .0746429.46     
GRID     3364           1.45    .0746429.46     
GRID     3365           1.425   .0746429.46     
GRID     3366           1.4     .0746429.46     
GRID     3367           1.5     .0607143.46     
GRID     3368           1.475   .0607143.46     
GRID     3369           1.45    .0607143.46     
GRID     3370           1.425   .0607143.46     
GRID     3371           1.4     .0607143.46     
GRID     3372           1.5     .0467857.46     
GRID     3373           1.475   .0467857.46     
GRID     3374           1.45    .0467857.46     
GRID     3375           1.425   .0467857.46     
GRID     3376           1.4     .0467857.46     
GRID     3377           1.5     .0328571.46     
GRID     3378           1.475   .0328571.46     
GRID     3379           1.45    .0328571.46     
GRID     3380           1.425   .0328571.46     
GRID     3381           1.4     .0328571.46     
GRID     3382           1.5      1.600-2.46     
GRID     3383           1.475    1.600-2.46     
GRID     3384           1.45     1.600-2.46     
GRID     3385           1.425    1.600-2.46     
GRID     3386           1.4      1.600-2.46     
GRID     3387           1.5     .005     4.290-1
GRID     3389           1.5      1.600-2 4.290-1
GRID     3391           1.475   .005     4.290-1
GRID     3393           1.475    1.600-2 4.290-1
GRID     3395           1.45    .005     4.290-1
GRID     3397           1.45     1.600-2 4.290-1
GRID     3399           1.425   .005     4.290-1
GRID     3401           1.425    1.600-2 4.290-1
GRID     3403           1.4     .005     4.290-1
GRID     3405           1.4      1.600-2 4.290-1
GRID     3407           1.5     -1.600-2 4.290-1
GRID     3409           1.5     -.005    4.290-1
GRID     3411           1.475   -1.600-2 4.290-1
GRID     3413           1.475   -.005    4.290-1
GRID     3415           1.45    -1.600-2 4.290-1
GRID     3417           1.45    -.005    4.290-1
GRID     3419           1.425   -1.600-2 4.290-1
GRID     3421           1.425   -.005    4.290-1
GRID     3423           1.4     -1.600-2 4.290-1
GRID     3425           1.4     -.005    4.290-1
GRID     3429            5.300-1-.025   .15     
GRID*    3430                            5.30000000000-1-5.42101-19
*       .15
GRID     3431            5.300-1.025    .15
GRID     3432            6.700-1-.025   .125
GRID*    3433                            6.70000000000-14.98479-19
*       .125
GRID     3434            6.700-1.025    .125
GRID     3435            6.700-1-.025   .15
GRID*    3436                            6.70000000000-1-1.19262-18
*       .15
GRID     3437            6.700-1.025    .15
GRID     3438            5.300-1-.025   .125
GRID*    3439                            5.30000000000-1-3.19437-19
*       .125
GRID     3440            5.300-1.025    .125    
GRID     3442            5.300-1-4.500-2.166    
GRID     3443            5.300-1-.025   .166    
GRID     3444            5.300-1 0.     .166    
GRID     3445            5.300-1.025    .166    
GRID     3446            5.300-1 4.500-2.166    
GRID     3449            6.700-1-4.500-2.166    
GRID     3450            6.700-1-.025   .166    
GRID     3451            6.700-1 0.     .166    
GRID     3452            6.700-1.025    .166    
GRID     3453            6.700-1 4.500-2.166    
GRID     3454           .55      4.500-2.15     
GRID     3455           .65      4.500-2.15     
GRID     3456           .65     -4.500-2.15     
GRID     3457           .55     -4.500-2.15     
GRID     3458           .65      4.500-2.166    
GRID     3459           .625     4.500-2.166    
GRID     3460           .6       4.500-2.166    
GRID     3461           .575     4.500-2.166    
GRID     3462           .55      4.500-2.166    
GRID     3463           .65      4.500-2.1585   
GRID     3464           .625     4.500-2.1585   
GRID     3465           .6       4.500-2.1585   
GRID     3466           .575     4.500-2.1585   
GRID     3467           .55      4.500-2.1585   
GRID     3469           .625     4.500-2.15
GRID     3470           .6       4.500-2.15
GRID     3471           .575     4.500-2.15
GRID     3473           .65     .025    .166
GRID     3474           .625    .025    .166
GRID     3475           .6      .025    .166
GRID     3476           .575    .025    .166
GRID     3477           .55     .025    .166
GRID     3478           .65     .025    .1585
GRID     3479           .625    .025    .1585
GRID     3480           .6      .025    .1585
GRID     3481           .575    .025    .1585
GRID     3482           .55     .025    .1585
GRID     3483           .65     .025    .15
GRID     3484           .625    .025    .15
GRID     3485           .6      .025    .15
GRID     3486           .575    .025    .15
GRID     3487           .55     .025    .15
GRID     3488           .65      0.     .166
GRID     3489           .625     0.     .166
GRID     3490           .6       0.     .166
GRID     3491           .575     0.     .166
GRID     3492           .55      0.     .166
GRID     3493           .65      0.     .1585
GRID     3494           .625     0.     .1585
GRID     3495           .6       0.     .1585
GRID     3496           .575     0.     .1585
GRID     3497           .55      0.     .1585
GRID*    3498                           .65             -1.19262-18
*       .15
GRID*    3499                           .625            -3.25261-19
*       .15
GRID     3500           .6       0.     .15
GRID*    3501                           .575            1.6263-19
*       .15
GRID*    3502                           .55             -5.42101-19
*       .15
GRID     3503           .65     -.025   .166
GRID     3504           .625    -.025   .166
GRID     3505           .6      -.025   .166
GRID     3506           .575    -.025   .166
GRID     3507           .55     -.025   .166
GRID     3508           .65     -.025   .1585
GRID     3509           .625    -.025   .1585
GRID     3510           .6      -.025   .1585
GRID     3511           .575    -.025   .1585
GRID     3512           .55     -.025   .1585
GRID     3513           .65     -.025   .15
GRID     3514           .625    -.025   .15
GRID     3515           .6      -.025   .15
GRID     3516           .575    -.025   .15
GRID     3517           .55     -.025   .15
GRID     3518           .65     -4.500-2.166
GRID     3519           .625    -4.500-2.166
GRID     3520           .6      -4.500-2.166
GRID     3521           .575    -4.500-2.166
GRID     3522           .55     -4.500-2.166
GRID     3523           .65     -4.500-2.1585
GRID     3524           .625    -4.500-2.1585
GRID     3525           .6      -4.500-2.1585
GRID     3526           .575    -4.500-2.1585
GRID     3527           .55     -4.500-2.1585
GRID     3529           .625    -4.500-2.15
GRID     3530           .6      -4.500-2.15
GRID     3531           .575    -4.500-2.15
GRID     3533            6.700-1-4.500-2.1585
GRID     3534            6.700-1-.025   .1585
GRID     3535            6.700-1 0.     .1585
GRID     3536            6.700-1.025    .1585
GRID     3537            6.700-1 4.500-2.1585
GRID     3538            5.300-1-4.500-2.1585
GRID     3539            5.300-1-.025   .1585
GRID     3540            5.300-1 0.     .1585
GRID     3541            5.300-1.025    .1585
GRID     3542            5.300-1 4.500-2.1585
GRID     3543            6.700-1-4.500-2.15
GRID     3544            6.700-1-.025   .15
GRID*    3545                            6.70000000000-1-1.19262-18
*       .15
GRID     3546            6.700-1.025    .15
GRID     3547            6.700-1 4.500-2.15
GRID     3548            5.300-1-4.500-2.15
GRID     3549            5.300-1-.025   .15
GRID*    3550                            5.30000000000-1-5.42101-19
*       .15
GRID     3551            5.300-1.025    .15
GRID     3552            5.300-1 4.500-2.15
GRID     3553            6.700-1-.025    0.
GRID*    3554                            6.70000000000-1-9.75782-19
*        0.
GRID     3555            6.700-1.025     0.
GRID     3556            6.700-1-.025   .025
GRID*    3557                            6.70000000000-1-1.0571-18
*       .025
GRID     3558            6.700-1.025    .025
GRID     3559            6.700-1-.025   .05
GRID*    3560                            6.70000000000-1-4.47233-19
*       .05
GRID     3561            6.700-1.025    .05
GRID     3562            6.700-1-.025   .075
GRID*    3563                            6.70000000000-15.28549-19
*       .075
GRID     3564            6.700-1.025    .075
GRID     3565            6.700-1-.025   .1
GRID*    3566                            6.70000000000-11.18585-20
*       .1
GRID     3567            6.700-1.025    .1
GRID     3568            5.300-1-.025    0.
GRID*    3569                            5.30000000000-1-5.14996-19
*        0.
GRID     3570            5.300-1.025     0.
GRID     3571            5.300-1-.025   .025
GRID*    3572                            5.30000000000-1-5.01444-19
*       .025
GRID     3573            5.300-1.025    .025
GRID     3574            5.300-1-.025   .05
GRID*    3575                            5.30000000000-14.06576-20
*       .05
GRID     3576            5.300-1.025    .05
GRID     3577            5.300-1-.025   .075
GRID*    3578                            5.30000000000-1-7.14896-19
*       .075
GRID     3579            5.300-1.025    .075
GRID     3580            5.300-1-.025   .1
GRID*    3581                            5.30000000000-1-5.42101-19
*       .1
GRID     3582            5.300-1.025    .1
GRID     3593           .35      0.     1.575
GRID     3594           .875     0.     1.575
GRID     3595           .7536    0.     .1132
$ correction for VTP/HTP joint
GRID     3596           1.5     -1.600-2.45     
GRID     3597           1.475   -1.600-2.45     
GRID     3598           1.45    -1.600-2.45     
GRID     3599           1.425   -1.600-2.45     
GRID     3600           1.4     -1.600-2.45     
GRID     3601           1.5      1.600-2.45     
GRID     3602           1.475    1.600-2.45     
GRID     3603           1.45     1.600-2.45     
GRID     3604           1.425    1.600-2.45     
GRID     3605           1.4      1.600-2.45     
$ Loads for Load Case : Default
SPCADD   2       1
$ Displacement Constraints of Load Set : spc1.1
SPC1     1       123     3593    3594
ENDDATA
>>>>>>> 11cabef1655a3074a01a0bc24dfae81c3b8a6321
